Version 4
SHEET 1 880 680
WIRE -128 -64 -288 -64
WIRE 368 -64 -128 -64
WIRE -288 16 -288 -64
WIRE -128 16 -128 -64
WIRE 368 16 368 -64
WIRE -128 160 -128 96
WIRE 0 160 -128 160
WIRE 208 160 128 160
WIRE 368 160 368 96
WIRE 368 160 208 160
WIRE 208 192 208 160
WIRE -128 224 -128 160
WIRE 0 224 0 160
WIRE 368 224 368 160
WIRE -288 272 -288 96
WIRE -288 272 -384 272
WIRE -192 272 -288 272
WIRE 208 288 208 256
WIRE 320 288 208 288
WIRE 208 320 208 288
WIRE 464 320 368 320
WIRE -128 336 -128 320
WIRE 0 336 0 288
WIRE 0 336 -128 336
WIRE 128 336 128 160
WIRE 128 336 0 336
WIRE 464 336 464 320
WIRE -288 368 -288 272
WIRE -128 368 -128 336
WIRE 0 384 0 336
WIRE -384 416 -384 272
WIRE 368 416 368 400
WIRE 464 416 464 400
WIRE 464 416 368 416
WIRE 368 432 368 416
WIRE 576 432 464 432
WIRE -384 544 -384 480
WIRE -288 544 -288 448
WIRE -128 544 -128 448
WIRE 0 544 0 448
WIRE 208 544 208 400
WIRE 368 544 368 512
WIRE 464 544 464 512
FLAG 208 544 0
FLAG 368 544 0
FLAG 464 544 0
FLAG -128 544 0
FLAG -288 544 0
FLAG -384 544 0
FLAG 0 544 0
SYMBOL ind 352 0 R0
SYMATTR InstName L1
SYMBOL ind -144 0 R0
SYMATTR InstName L2
SYMBOL cap 448 336 R0
SYMATTR InstName C1
SYMBOL cap 192 192 R0
SYMATTR InstName C2
SYMBOL res 192 304 R0
SYMATTR InstName R1
SYMBOL res 352 304 R0
SYMATTR InstName R2
SYMBOL ind 352 416 R0
SYMATTR InstName L3
SYMBOL ind 480 528 R180
WINDOW 0 36 80 Left 2
WINDOW 3 36 40 Left 2
SYMATTR InstName L4
SYMBOL res -144 352 R0
SYMATTR InstName R3
SYMBOL res -304 352 R0
SYMATTR InstName R4
SYMBOL res -304 0 R0
SYMATTR InstName R5
SYMBOL cap -16 384 R0
SYMATTR InstName C3
SYMBOL cap -16 224 R0
SYMATTR InstName C4
SYMBOL npn -192 224 R0
SYMATTR InstName Q1
SYMBOL njf 320 224 R0
SYMATTR InstName J1
SYMBOL cap -400 416 R0
SYMATTR InstName C5
