Version 4
SHEET 1 2380 680
WIRE 384 -256 256 -256
WIRE 400 -256 384 -256
WIRE 480 -256 400 -256
WIRE 256 -160 256 -256
WIRE 384 -160 384 -256
WIRE 480 -128 480 -256
WIRE 256 -32 256 -80
WIRE 384 -32 384 -80
WIRE -288 0 -384 0
WIRE -224 0 -288 0
WIRE -96 0 -144 0
WIRE -48 0 -96 0
WIRE -32 0 -48 0
WIRE -96 16 -96 0
WIRE 480 32 480 -48
WIRE -384 80 -384 0
WIRE -96 112 -96 80
WIRE 80 112 80 80
WIRE 416 128 384 128
WIRE 480 128 480 112
WIRE 480 128 416 128
WIRE 672 128 592 128
WIRE 752 128 672 128
WIRE 384 160 384 128
WIRE 480 160 480 128
WIRE 592 160 592 128
WIRE 752 160 752 128
WIRE 672 176 672 128
WIRE -384 192 -384 160
WIRE 80 224 80 192
WIRE 384 256 384 240
WIRE 592 256 592 240
WIRE 672 256 672 240
WIRE 752 256 752 240
WIRE -384 288 -384 272
WIRE 352 304 224 304
WIRE 384 304 352 304
WIRE 480 304 480 240
WIRE 480 304 464 304
WIRE -288 320 -288 0
WIRE -224 320 -288 320
WIRE -96 320 -144 320
WIRE -48 320 -96 320
WIRE -32 320 -48 320
WIRE -96 336 -96 320
WIRE 224 400 224 304
WIRE 352 400 352 304
WIRE -96 432 -96 400
WIRE 224 528 224 480
WIRE 352 528 352 480
FLAG 256 -32 0
FLAG 752 256 0
FLAG -48 0 g2a
FLAG 80 224 0
FLAG 80 80 g1
FLAG 592 256 0
FLAG 672 256 0
FLAG 400 -256 oa
FLAG -96 112 0
FLAG -48 320 g2b
FLAG -96 432 0
FLAG 224 528 0
FLAG 352 304 ob
FLAG -384 288 0
FLAG 416 128 VDD
FLAG 384 256 0
FLAG 384 -32 0
FLAG 352 528 0
SYMBOL bi 256 -160 R0
WINDOW 3 -56 98 VLeft 2
SYMATTR InstName ida
SYMATTR Value I=(table(V(g2a), 0,1, 1,1e-3  ,4,10e-3, 10,10e-3))*V(g1)
SYMBOL res 736 144 R0
SYMATTR InstName R1
SYMATTR Value 1k
SYMBOL voltage 80 96 R0
WINDOW 3 24 44 Left 2
WINDOW 123 0 0 Left 0
WINDOW 39 0 0 Left 0
SYMATTR InstName V2
SYMATTR Value SINE(0 10u 11e6)
SYMBOL ind2 576 144 R0
SYMATTR InstName L1
SYMATTR Value {L}
SYMATTR Type ind
SYMBOL cap 656 176 R0
SYMATTR InstName C3
SYMATTR Value {C}
SYMBOL res -128 -16 R90
WINDOW 0 0 56 VBottom 2
WINDOW 3 32 56 VTop 2
SYMATTR InstName R2
SYMATTR Value 1k
SYMBOL cap -112 16 R0
SYMATTR InstName C1
SYMATTR Value 15e-12
SYMBOL res -128 304 R90
WINDOW 0 0 56 VBottom 2
WINDOW 3 32 56 VTop 2
SYMATTR InstName R3
SYMATTR Value 1k
SYMBOL cap -112 336 R0
SYMATTR InstName C2
SYMATTR Value 15e-12
SYMBOL bi 224 400 R0
WINDOW 3 -60 68 VLeft 2
SYMATTR InstName idb
SYMATTR Value I=(table(V(g2b), 0,1, 1,1e-3  ,4,10e-3, 10,10e-3))*(-V(g1))
SYMBOL ind2 464 16 R0
SYMATTR InstName L2
SYMATTR Value {L}
SYMATTR Type ind
SYMATTR SpiceLine Rser=0
SYMBOL ind2 464 144 R0
SYMATTR InstName L3
SYMATTR Value {L}
SYMATTR Type ind
SYMATTR SpiceLine Rser=0
SYMBOL voltage -384 64 R0
WINDOW 3 -51 112 VLeft 2
WINDOW 123 0 0 Left 0
WINDOW 39 0 0 Left 0
SYMATTR InstName Vol1
SYMATTR Value SINE(0 2 10e6)
SYMBOL voltage -384 176 R0
WINDOW 123 0 0 Left 0
WINDOW 39 0 0 Left 0
SYMATTR InstName Vpol1
SYMATTR Value 2.5
SYMBOL voltage 384 144 R0
WINDOW 123 0 0 Left 0
WINDOW 39 0 0 Left 0
SYMATTR InstName Vpol2
SYMATTR Value 20
SYMBOL bi 384 -160 R0
WINDOW 3 -56 98 VLeft 2
SYMATTR InstName ida1
SYMATTR Value I=2e-3*V(g2a)+4e-3
SYMBOL bi 352 400 R0
SYMATTR InstName ida2
SYMATTR Value I=2e-3*V(g2b)+4e-3
SYMBOL res 464 -144 R0
SYMATTR InstName R4
SYMATTR Value 0.1
SYMBOL res 368 320 R270
WINDOW 0 32 56 VTop 2
WINDOW 3 0 56 VBottom 2
SYMATTR InstName R5
SYMATTR Value 0.1
TEXT -226 472 Left 2 !.tran 0 14e-6 10e-6 uic
TEXT 480 352 Left 2 !K12 L1 L2 1
TEXT 480 384 Left 2 !K13 L1 L3 1
TEXT 480 416 Left 2 !K23 L2 L3 1
TEXT 656 344 Left 2 !.param L= 1.59e-05 \n.param C= 1.59e-09
